LTspice 24.1.10 for Windows
Circuit: D:\Projects\HSFT\HFST\kk\1-5-4.net
Start Time: Wed Nov 12 02:34:53 2025
solver = Normal
Maximum thread count: 16
tnom = 27
temp = 27
method = modified trap
Direct Newton iteration for .op point succeeded.
Total elapsed time: 0.032 seconds.

Files loaded:
D:\Projects\HSFT\HFST\kk\1-5-4.net

