LTspice 24.1.10 for Windows
Circuit: D:\Projects\HSFT\HFST\kk\Draft1.net
Start Time: Wed Nov 12 01:50:32 2025
D:\Projects\HSFT\HFST\kk\Draft1.net(13): No such parameter defined.
C3 Kollektor N006 {C}
                   ^
