LTspice 24.1.10 for Windows
Circuit: C:\Users\sgrigorevski\Downloads\kk\Draft2.net
Start Time: Tue Nov 11 18:15:48 2025
solver = Normal
Maximum thread count: 16
tnom = 27
temp = 27
method = trap
Direct Newton iteration for .op point succeeded.
Total elapsed time: 0.088 seconds.

Files loaded:
C:\Users\sgrigorevski\Downloads\kk\Draft2.net

