LTspice 24.1.10 for Windows
Circuit: D:\Projects\HSFT\HFST\kk\Draft2.net
Start Time: Wed Nov 12 01:09:51 2025
solver = Normal
Maximum thread count: 16
tnom = 27
temp = 27
method = modified trap
Direct Newton iteration for .op point succeeded.
Total elapsed time: 0.021 seconds.

Files loaded:
D:\Projects\HSFT\HFST\kk\Draft2.net

