LTspice 24.1.10 for Windows
Circuit: D:\Projects\HSFT\HFST\kk\1-5-4.net
Start Time: Sun Nov 23 18:04:41 2025
solver = Normal
Maximum thread count: 16
tnom = 27
temp = 27
method = modified trap
Direct Newton iteration for .op point succeeded.
Total elapsed time: 0.064 seconds.

Files loaded:
D:\Projects\HSFT\HFST\kk\1-5-4.net

