LTspice 24.1.10 for Windows
Circuit: D:\Projects\HSFT\HFST\kk\Draft1.net
Start Time: Wed Nov 12 21:30:47 2025
solver = Normal
Maximum thread count: 16
tnom = 27
temp = 27
method = modified trap
Direct Newton iteration for .op point succeeded.
.step c=0
.step c=1e-11
.step c=2e-11
.step c=3e-11
.step c=4e-11
.step c=5e-11
.step c=6e-11
.step c=7e-11
.step c=8e-11
.step c=9e-11
.step c=1e-10
.step c=1.1e-10
.step c=1.2e-10
.step c=1.3e-10
.step c=1.4e-10
.step c=1.5e-10
.step c=1.6e-10
.step c=1.7e-10
.step c=1.8e-10
.step c=1.9e-10
.step c=2e-10
.step c=2.1e-10
.step c=2.2e-10
.step c=2.3e-10
.step c=2.4e-10
.step c=2.5e-10
.step c=2.6e-10
.step c=2.7e-10
.step c=2.8e-10
.step c=2.9e-10
.step c=3e-10
.step c=3.1e-10
.step c=3.2e-10
.step c=3.3e-10
.step c=3.4e-10
.step c=3.5e-10
.step c=3.6e-10
.step c=3.7e-10
.step c=3.8e-10
.step c=3.9e-10
.step c=4e-10
.step c=4.1e-10
.step c=4.2e-10
.step c=4.3e-10
.step c=4.4e-10
.step c=4.5e-10
.step c=4.6e-10
.step c=4.7e-10
.step c=4.8e-10
.step c=4.9e-10
.step c=5e-10
Total elapsed time: 0.905 seconds.

Files loaded:
D:\Projects\HSFT\HFST\kk\Draft1.net

