LTspice 24.1.10 for Windows
Circuit: D:\Projects\HSFT\HFST\149\Versuch1-2.net
Start Time: Fri Nov 14 19:02:59 2025
solver = Normal
Maximum thread count: 16
tnom = 27
temp = 27
method = modified trap
Direct Newton iteration for .op point succeeded.
Total elapsed time: 0.051 seconds.

Files loaded:
D:\Projects\HSFT\HFST\149\Versuch1-2.net
C:\Users\wenze\AppData\Local\LTspice\lib\cmp\standard.bjt

